*Heading
** Job name: cube Model name: Model-1
** Generated by: Abaqus/CAE Learning Edition 2025
*Preprint, echo=NO, model=NO, history=NO, contact=NO
**
** PARTS
**
*Part, name=cube
*Node
      1,         100.,         100.,         100.
      2,         100.,           0.,         100.
      3,         100.,           0.,           0.
      4,         100.,         100.,           0.
      5,           0.,           0.,         100.
      6,           0.,           0.,           0.
      7,           0.,         100.,           0.
      8,           0.,         100.,         100.
      9,         100.,   85.7142868,         100.
     10,         100.,   71.4285736,         100.
     11,         100.,   57.1428566,         100.
     12,         100.,   42.8571434,         100.
     13,         100.,   28.5714283,         100.
     14,         100.,   14.2857141,         100.
     15,         100.,           0.,   85.7142868
     16,         100.,           0.,   71.4285736
     17,         100.,           0.,   57.1428566
     18,         100.,           0.,   42.8571434
     19,         100.,           0.,   28.5714283
     20,         100.,           0.,   14.2857141
** ... 571 like lines cut
*Element, type=C3D4
   1, 297, 298, 299, 300
   2, 301, 302, 303, 304
   3, 301, 305, 306, 307
   4, 301, 303, 308, 309
   5, 310, 311, 312, 313
   6, 314, 310, 315, 316
   7, 310, 317, 318, 314
   8, 310, 319, 315, 320
   9, 310, 316, 321, 312
  10, 316, 310, 315, 312
  11, 310, 319, 318, 317
  12, 322, 323, 324, 325
  13, 322, 325, 324, 326
  14, 322, 327, 328, 329
  15, 322, 330, 323, 331
  16, 322, 323, 332, 333
  17, 322, 329, 328, 332
  18, 334, 308, 335, 323
  19, 334, 336, 316, 331
  20, 334, 331, 337, 338
** ... 2526 like lines cut
*Nset, nset=Set-1, generate
   1,  591,    1
*Elset, elset=Set-1, generate
    1,  2546,     1
** Section: steel
*Solid Section, elset=Set-1, material=steel
,
*End Part
**  
**
** ASSEMBLY
**
*Assembly, name=Assembly
**  
*Instance, name=cube-1, part=cube
*End Instance
**  
*Nset, nset=Set-1, instance=cube-1
   3,   4,   6,   7,  21,  22,  23,  24,  25,  26,  45,  46,  47,  48,  49,  50
  51,  52,  53,  54,  55,  56,  57,  58,  59,  60,  61,  62, 153, 154, 155, 156
 157, 158, 159, 160, 161, 162, 163, 164, 165, 166, 167, 168, 169, 170, 171, 172
 173, 174, 175, 176, 177, 178, 179, 180, 181, 182, 183, 184, 185, 186, 187, 188
*Elset, elset=Set-1, instance=cube-1
   28,  162,  396,  404,  470,  488,  500,  530,  566,  695,  712,  906,  978,  984, 1017, 1062
 1157, 1200, 1226, 1249, 1271, 1440, 1442, 1507, 1559, 1566, 1579, 1584, 1632, 1661, 1745, 1748
 1800, 1824, 1825, 1826, 1828, 1837, 1838, 1844, 1878, 1880, 1881, 1904, 1906, 1935, 1943, 1949
 1953, 2007, 2031, 2035, 2036, 2079, 2105, 2129, 2155, 2176, 2183, 2228, 2272, 2275, 2292, 2317
 2318, 2320, 2323, 2349, 2369, 2372, 2380, 2384, 2398, 2407, 2408, 2410, 2412, 2423, 2424, 2425
 2427, 2437, 2438, 2454, 2456, 2463, 2474, 2478, 2499, 2507, 2509, 2519, 2524, 2526, 2528, 2539
 2545, 2546
*Nset, nset=Set-2, instance=cube-1
   1,   2,   5,   8,   9,  10,  11,  12,  13,  14,  33,  34,  35,  36,  37,  38
  63,  64,  65,  66,  67,  68,  75,  76,  77,  78,  79,  80, 225, 226, 227, 228
 229, 230, 231, 232, 233, 234, 235, 236, 237, 238, 239, 240, 241, 242, 243, 244
 245, 246, 247, 248, 249, 250, 251, 252, 253, 254, 255, 256, 257, 258, 259, 260
*Elset, elset=Set-2, instance=cube-1
   95,  219,  240,  323,  390,  394,  400,  468,  694, 1043, 1056, 1103, 1118, 1167, 1192, 1315
 1347, 1423, 1435, 1523, 1531, 1536, 1555, 1585, 1595, 1629, 1630, 1633, 1639, 1652, 1658, 1679
 1694, 1725, 1757, 1809, 1831, 1852, 1950, 1956, 1957, 1965, 1982, 1983, 1998, 2010, 2019, 2021
 2022, 2023, 2024, 2065, 2069, 2071, 2088, 2148, 2161, 2201, 2208, 2210, 2211, 2222, 2223, 2230
 2231, 2232, 2233, 2237, 2239, 2243, 2246, 2254, 2258, 2259, 2266, 2269, 2271, 2274, 2280, 2293
 2295, 2300, 2307, 2310, 2313, 2319, 2325, 2330, 2352, 2354, 2359, 2363, 2480, 2482, 2490, 2514
 2515, 2532
*Nset, nset=Set-3, instance=cube-1
   1,   2,   5,   8,   9,  10,  11,  12,  13,  14,  33,  34,  35,  36,  37,  38
  63,  64,  65,  66,  67,  68,  75,  76,  77,  78,  79,  80, 225, 226, 227, 228
 229, 230, 231, 232, 233, 234, 235, 236, 237, 238, 239, 240, 241, 242, 243, 244
 245, 246, 247, 248, 249, 250, 251, 252, 253, 254, 255, 256, 257, 258, 259, 260
*Elset, elset=Set-3, instance=cube-1
   95,  219,  240,  323,  390,  394,  400,  468,  694, 1043, 1056, 1103, 1118, 1167, 1192, 1315
 1347, 1423, 1435, 1523, 1531, 1536, 1555, 1585, 1595, 1629, 1630, 1633, 1639, 1652, 1658, 1679
 1694, 1725, 1757, 1809, 1831, 1852, 1950, 1956, 1957, 1965, 1982, 1983, 1998, 2010, 2019, 2021
 2022, 2023, 2024, 2065, 2069, 2071, 2088, 2148, 2161, 2201, 2208, 2210, 2211, 2222, 2223, 2230
 2231, 2232, 2233, 2237, 2239, 2243, 2246, 2254, 2258, 2259, 2266, 2269, 2271, 2274, 2280, 2293
 2295, 2300, 2307, 2310, 2313, 2319, 2325, 2330, 2352, 2354, 2359, 2363, 2480, 2482, 2490, 2514
 2515, 2532
*Elset, elset=_Surf-1_S3, internal, instance=cube-1
   95,  219,  240,  390,  400,  694, 1043, 1103, 1118, 1167, 1192, 1315, 1347, 1423, 1435, 1523
 1531, 1536, 1555, 1585, 1595, 1629, 1630, 1633, 1639, 1652, 1658, 1679, 1694, 1725, 1757, 1809
 1831, 1852, 1950, 1956, 1957, 1965, 1982, 1983, 1998, 2010, 2019, 2021, 2022, 2023, 2024, 2065
 2069, 2071, 2088, 2148, 2161, 2201, 2208, 2210, 2211, 2223, 2230, 2231, 2232, 2233, 2237, 2243
 2246, 2258, 2259, 2266, 2269, 2271, 2274, 2280, 2293, 2295, 2300, 2307, 2310, 2313, 2319, 2325
 2330, 2352, 2354, 2359, 2480, 2482, 2490, 2514, 2515, 2532
*Elset, elset=_Surf-1_S1, internal, instance=cube-1
 323, 394
*Elset, elset=_Surf-1_S2, internal, instance=cube-1
  468, 1056, 2239
*Elset, elset=_Surf-1_S4, internal, instance=cube-1
 2222, 2254, 2363
*Surface, type=ELEMENT, name=Surf-1
_Surf-1_S3, S3
_Surf-1_S1, S1
_Surf-1_S2, S2
_Surf-1_S4, S4
*End Assembly
** 
** MATERIALS
** 
*Material, name=steel
*Elastic
210000., 0.3
*Plastic
250.,   0.
500., 0.25
** 
** BOUNDARY CONDITIONS
** 
** Name: bottom Type: Displacement/Rotation
*Boundary
Set-1, 1, 1
Set-1, 2, 2
Set-1, 3, 3
** ----------------------------------------------------------------
** 
** STEP: Step-1
** 
*Step, name=Step-1, nlgeom=NO
*Static
1., 1., 1e-05, 1.
** 
** BOUNDARY CONDITIONS
** 
** Name: top Type: Displacement/Rotation
*Boundary
Set-3, 1, 1
Set-3, 2, 2, 0.1
Set-3, 3, 3
** 
** OUTPUT REQUESTS
** 
*Restart, write, frequency=0
** 
** FIELD OUTPUT: F-Output-1
** 
*Output, field, variable=PRESELECT
** 
** HISTORY OUTPUT: H-Output-1
** 
*Output, history, variable=PRESELECT
*End Step
