*Heading
** Job name: curvedpipe Model name: Model-1
** Generated by: Abaqus/CAE Learning Edition 2025
*Preprint, echo=NO, model=NO, history=NO, contact=NO
**
** PARTS
**
*Part, name=curvedpipe
*End Part
**  
**
** ASSEMBLY
**
*Assembly, name=Assembly
**  
*Instance, name=curvedpipe-1, part=curvedpipe
*Node
      1,          25.,           0.,           0.
      2,         100.,           0.,          75.
      3,          15.,           0.,           0.
      4,         100.,           0.,          85.
      5,   24.0729313,    6.7449193,           0.
      6,   21.3604851,   12.9895983,           0.
      7,   17.0638294,   18.2708988,           0.
      8,    11.501626,   22.1971302,           0.
      9,   5.08640051,   24.4771023,           0.
     10,  -1.70606029,   24.9417191,           0.
     11,   -8.3719902,   23.5565224,           0.
     12,  -14.4170084,   20.4242477,           0.
     13,  -19.3927822,   15.7771988,           0.
     14,  -22.9302826,   9.96002769,           0.
     15,   -24.767149,   3.40416622,           0.
     16,   -24.767149,  -3.40416622,           0.
     17,  -22.9302826,  -9.96002769,           0.
     18,  -19.3927822,  -15.7771988,           0.
     19,  -14.4170084,  -20.4242477,           0.
     20,   -8.3719902,  -23.5565224,           0.
** ... 956 like lines cut
*Element, type=C3D4
   1, 760, 308, 761,  35
   2, 760, 762, 102, 763
   3, 102, 764, 656, 760
   4, 760, 765, 308, 330
   5, 760,  36, 762, 763
   6, 760, 330, 764, 765
   7, 485,   6,   7, 766
   8, 767, 497, 485,   6
   9, 767, 768, 113, 769
  10, 767,  77, 485,  78
  11, 767, 524, 768, 769
  12, 767,  77, 766, 485
  13, 770, 759, 510,  91
  14, 770,  46, 500,  45
  15, 770, 758,  91,  90
  16, 758, 465, 508, 770
  17, 771, 182, 772, 183
  18, 770, 758,  90, 508
  19, 770,  46, 508, 500
  20, 773, 516, 487,  69
** ... 3517 like lines cut
*Nset, nset=Set-1, generate
   1,  976,    1
*Elset, elset=Set-1, generate
    1,  3537,     1
** Section: curvedpipe
*Solid Section, elset=Set-1, material=steel
,
*End Instance
**  
*Nset, nset=Set-4, instance=curvedpipe-1
   1,   3,   5,   6,   7,   8,   9,  10,  11,  12,  13,  14,  15,  16,  17,  18
  19,  20,  21,  22,  23,  24,  25,  26,  66,  67,  68,  69,  70,  71,  72,  73
  74,  75,  76,  77,  78, 485, 486, 487, 488, 489, 490, 491, 492, 493, 494, 495
 496, 497, 498
*Elset, elset=Set-4, instance=curvedpipe-1
    7,    8,   10,   21,   22,   27,   34,  136,  137,  140,  378,  380,  508,  576,  773,  928
  931, 1104, 1107, 1550, 1776, 1801, 1813, 1846, 1870, 1877, 1892, 1893, 1900, 1930, 1962, 1972
 1978, 2007, 2047, 2124, 2597, 2701, 2823, 2954, 3021, 3051, 3165, 3236, 3272, 3305, 3312, 3318
 3326, 3342, 3364, 3368, 3381, 3386, 3391, 3470, 3487, 3512, 3513, 3514, 3515, 3523, 3527, 3529
 3537,
*Elset, elset=_Surf-1_S3, internal, instance=curvedpipe-1
   14,   19,   47,   48,  161,  238,  316,  586,  658,  779, 1163, 1205, 1211, 1235, 1249, 1341
 1344, 1357, 1362, 1366, 1375, 1403, 1414, 1418, 1420, 1431, 1444, 1576, 1627, 1688, 1851, 1854
 1986, 2043, 2061, 2229, 3394, 3417, 3418, 3429, 3436, 3437, 3441, 3456, 3460, 3467, 3469, 3498
*Elset, elset=_Surf-1_S4, internal, instance=curvedpipe-1
  483,  783, 1360, 1440, 1531, 2476, 3501
*Elset, elset=_Surf-1_S2, internal, instance=curvedpipe-1
 1179, 1346, 1439, 1968, 2213, 2438, 3397, 3405, 3491
*Elset, elset=_Surf-1_S1, internal, instance=curvedpipe-1
 2427,
*Surface, type=ELEMENT, name=Surf-1
_Surf-1_S3, S3
_Surf-1_S4, S4
_Surf-1_S2, S2
_Surf-1_S1, S1
*End Assembly
** 
** MATERIALS
** 
*Material, name=steel
*Elastic
210000., 0.3
*Plastic
250.,   0.
500., 0.25
** ----------------------------------------------------------------
** 
** STEP: Step-1
** 
*Step, name=Step-1, nlgeom=NO
*Static
1., 1., 1e-05, 1.
** 
** BOUNDARY CONDITIONS
** 
** Name: fix Type: Displacement/Rotation
*Boundary
Set-4, 1, 1
Set-4, 2, 2
Set-4, 3, 3
** 
** LOADS
** 
** Name: Load-1   Type: Surface traction
*Dsload, constant resultant=YES
Surf-1, TRVEC, 0.7958, -1., 0., 0.
** 
** OUTPUT REQUESTS
** 
*Restart, write, frequency=0
** 
** FIELD OUTPUT: F-Output-1
** 
*Output, field, variable=PRESELECT
** 
** HISTORY OUTPUT: H-Output-1
** 
*Output, history, variable=PRESELECT
*End Step
