*Heading
** Job name: shelf Model name: Model-1
** Generated by: Abaqus/CAE Learning Edition 2025
*Preprint, echo=NO, model=NO, history=NO, contact=NO
**
** PARTS
**
*Part, name=shelf
*Node
      1,          60.,          20.,          10.
      2,          60.,          20.,           0.
      3,          40.,          20.,           0.
      4,          40.,          20.,          10.
      5,          60.,           0.,           0.
      6,          40.,           0.,           0.
      7,          40.,           0.,          10.
      8,          60.,           0.,          10.
      9,           0.,           0.,          10.
     10,           0.,           0.,           0.
     11,           0.,          20.,          10.
     12,           0.,          20.,           0.
     13,          80.,          20.,          10.
     14,          80.,           0.,          10.
     15,          80.,           0.,           0.
     16,          80.,          20.,           0.
     17,          60.,          20.,   6.66666651
     18,          60.,          20.,   3.33333325
     19,   56.6666679,          20.,           0.
     20,   53.3333321,          20.,           0.
** ... 787 like lines cut
*Element, type=C3D4
  1, 473, 474, 475, 476
  2, 477, 474, 478, 479
  3, 474, 479, 477, 480
  4, 474, 481, 482, 479
  5, 474, 481, 483, 482
  6, 474, 481, 480, 484
  7, 474, 485, 479, 486
  8, 474, 483, 485, 486
  9, 169, 170, 487, 488
 10, 489, 490, 491, 492
 11, 493, 494, 495, 490
 12, 488, 496, 482, 497
 13, 169, 488, 482, 498
 14, 169, 488, 487, 496
 15, 488, 496, 499, 487
 16, 239, 500, 501, 240
 17, 498, 502, 503, 488
 18, 504, 505, 506, 207
 19, 504, 507, 508, 509
 20, 504, 496, 510, 201
** ... 3290 like lines cut
*Nset, nset=Set-1, generate
   1,  807,    1
*Elset, elset=Set-1, generate
    1,  3310,     1
** Section: shelf
*Solid Section, elset=Set-1, material=Material-1
,
*End Part
**  
**
** ASSEMBLY
**
*Assembly, name=Assembly
**  
*Instance, name=shelf-1, part=shelf
*End Instance
**  
*Nset, nset=Set-1, instance=shelf-1
   9,  10,  11,  12,  75,  76,  97,  98,  99, 100, 101, 102, 103, 104, 105, 106
 107, 108, 313, 314, 315, 316, 317, 318, 319, 320, 321, 322
*Elset, elset=Set-1, instance=shelf-1
  999, 1162, 1205, 1299, 1390, 1401, 1402, 1417, 1422, 1453, 1523, 1524, 1564, 1565, 1725, 1851
 1987, 2058, 2142, 2153, 2156, 2158, 2159, 2171, 2176, 2177, 2185, 2187, 2192, 2194, 2197, 2223
 2335, 2337, 2344, 2385
*Elset, elset=_Surf-1_S3, internal, instance=shelf-1
 2513, 2545, 2551, 2587, 2596, 2597, 2605, 2606, 2654, 2655, 2673, 2685, 2690, 2702, 2723, 2727
 2728, 2738, 2754, 2796, 2828, 2834, 2843, 2852, 2853, 2896, 2901, 2942, 2950, 2972, 2986, 2988
 2993, 2995, 2997, 2998, 3006, 3008, 3012, 3022, 3026, 3028, 3033, 3038, 3039, 3042, 3043, 3046
 3060, 3065, 3068, 3069, 3081, 3108, 3153, 3184, 3196, 3211, 3225, 3235, 3239, 3256, 3263, 3286
 3289, 3297, 3300, 3303, 3309
*Elset, elset=_Surf-1_S4, internal, instance=shelf-1
 2981,
*Elset, elset=_Surf-1_S1, internal, instance=shelf-1
 3015, 3041
*Surface, type=ELEMENT, name=Surf-1
_Surf-1_S3, S3
_Surf-1_S4, S4
_Surf-1_S1, S1
*End Assembly
** 
** MATERIALS
** 
*Material, name=Material-1
*Elastic
210000., 0.3
*Plastic
250.,   0.
500., 0.25
** ----------------------------------------------------------------
** 
** STEP: Step-1
** 
*Step, name=Step-1, nlgeom=NO
*Static
1., 1., 1e-05, 1.
** 
** BOUNDARY CONDITIONS
** 
** Name: fix Type: Displacement/Rotation
*Boundary
Set-1, 1, 1
Set-1, 2, 2
Set-1, 3, 3
** 
** LOADS
** 
** Name: Load-1   Type: Surface traction
*Dsload
Surf-1, TRVEC, 100., 0., 0., -1.
** 
** OUTPUT REQUESTS
** 
*Restart, write, frequency=0
** 
** FIELD OUTPUT: F-Output-1
** 
*Output, field, variable=PRESELECT
** 
** HISTORY OUTPUT: H-Output-1
** 
*Output, history, variable=PRESELECT
*End Step
